<dataset>
    <trip id="1" route_schedule_id="102" start_date="2021-11-27" created="2021-11-27 10:30:00"/>

    <trip_point trip_id="1" transportation_unit_id="2" index="0"/>
    <trip_point trip_id="1" transportation_unit_id="8" index="1"/>
    <trip_point trip_id="1" transportation_unit_id="9" index="2"/>
    <trip_point trip_id="1" transportation_unit_id="3" index="3"/>
</dataset>
